REMARK  Name = 
REMARK  3 active torsions:
REMARK  status: ('A' for Active; 'I' for Inactive)
REMARK    1  A    between atoms: O_2  and  C_5
REMARK    2  A    between atoms: C_3  and  C_4
REMARK    3  A    between atoms: C_3  and  C_5
REMARK                            x       y       z     vdW  Elec       q    Type
REMARK                         _______ _______ _______ _____ _____    ______ ____
ROOT
ATOM      1  O   UNL     1       1.673  -0.611   0.012  0.00  0.00    +0.000 OA
ATOM      2  C   UNL     1       0.594   0.043  -0.002  0.00  0.00    +0.000 C 
ENDROOT
BRANCH   2   3
ATOM      3  O   UNL     1       0.416   1.296  -0.006  0.00  0.00    +0.000 OA
ATOM      4  H   UNL     1       0.000   0.000   0.000  0.00  0.00    +0.000 HD
ENDBRANCH   2   3
BRANCH   2   5
ATOM      5  C   UNL     1      -0.702  -0.771  -0.019  0.00  0.00    +0.000 C 
ATOM      6  C   UNL     1      -1.981   0.043   0.015  0.00  0.00    +0.000 C 
ENDBRANCH   2   5
TORSDOF 2
