
     RDKit          3D

 13 12  0  0  0  0  0  0  0  0999 V2000
    1.6135    0.2689   -0.1906 C   0  0  0  0  0  0  0  0  0  0  0  0
    0.2610   -0.0287   -0.8183 C   0  0  0  0  0  0  0  0  0  0  0  0
   -0.7957   -0.3936    0.2200 C   0  0  0  0  0  0  0  0  0  0  0  0
   -1.0398    0.6712    1.1101 O   0  0  0  0  0  0  0  0  0  0  0  0
   -2.0152   -0.6718   -0.4307 O   0  0  0  0  0  0  0  0  0  0  0  0
    1.9800   -0.5932    0.3758 H   0  0  0  0  0  0  0  0  0  0  0  0
    2.3479    0.5008   -0.9683 H   0  0  0  0  0  0  0  0  0  0  0  0
    1.5576    1.1272    0.4862 H   0  0  0  0  0  0  0  0  0  0  0  0
    0.3606   -0.8460   -1.5424 H   0  0  0  0  0  0  0  0  0  0  0  0
   -0.0655    0.8494   -1.3893 H   0  0  0  0  0  0  0  0  0  0  0  0
   -0.4868   -1.2750    0.7918 H   0  0  0  0  0  0  0  0  0  0  0  0
   -1.1403    1.4624    0.5547 H   0  0  0  0  0  0  0  0  0  0  0  0
   -2.5773   -1.0717    0.2543 H   0  0  0  0  0  0  0  0  0  0  0  0
  1  2  1  0
  2  3  1  0
  3  4  1  0
  3  5  1  0
  1  6  1  0
  1  7  1  0
  1  8  1  0
  2  9  1  0
  2 10  1  0
  3 11  1  0
  4 12  1  0
  5 13  1  0
M  END
