REMARK  Name = 
REMARK  4 active torsions:
REMARK  status: ('A' for Active; 'I' for Inactive)
REMARK    1  A    between atoms: C_1  and  C_2
REMARK    2  A    between atoms: C_2  and  C_3
REMARK    3  A    between atoms: C_3  and  O_4
REMARK    4  A    between atoms: C_3  and  O_5
REMARK                            x       y       z     vdW  Elec       q    Type
REMARK                         _______ _______ _______ _____ _____    ______ ____
ROOT
ATOM      1  C   UNL     1      -0.796  -0.394   0.220  0.00  0.00    +0.243 C 
ENDROOT
BRANCH   1   3
ATOM      2  C   UNL     1       1.613   0.269  -0.191  0.00  0.00    +0.009 C 
ATOM      3  C   UNL     1       0.261  -0.029  -0.818  0.00  0.00    +0.057 C 
ENDBRANCH   1   3
BRANCH   1   4
ATOM      4  O   UNL     1      -1.040   0.671   1.110  0.00  0.00    -0.367 OA
ATOM      5  H   UNL     1      -1.140   1.462   0.555  0.00  0.00    +0.212 HD
ENDBRANCH   1   4
BRANCH   1   6
ATOM      6  O   UNL     1      -2.015  -0.672  -0.431  0.00  0.00    -0.367 OA
ATOM      7  H   UNL     1      -2.577  -1.072   0.254  0.00  0.00    +0.212 HD
ENDBRANCH   1   6
TORSDOF 3
